# empty
# Created by GaussView 3.09
#

#
#

@<TRIPOS>MOLECULE
Molecule Name
47 50
SMALL
NO_CHARGES


@<TRIPOS>ATOM
1 C1     4.5153     0.0068    -0.6255 C
2 C2     3.5875     1.1106    -0.3228 C
3 C3     2.3478     0.9481     0.1858 C
4 C4     1.7146    -0.4294     0.4138 C
5 C5     2.5142    -1.5099    -0.3636 C
6 C6     4.0357    -1.3809    -0.2336 C
7 H7     3.9889     2.1085    -0.4896 H
8 H8     2.2054    -2.5077    -0.0345 H
9 H9     2.2518    -1.4365    -1.4281 H
10 H10     4.3542    -1.5592     0.8038 H
11 H11     4.5566    -2.1195    -0.8510 H
12 C12     1.7633    -0.7378     1.9343 C
13 H13     1.1685    -0.0299     2.5196 H
14 H14     1.3879    -1.7443     2.1449 H
15 H15     2.7915    -0.6835     2.3066 H
16 C16     0.2358    -0.4076    -0.1368 C
17 H17     0.3371    -0.2597    -1.2250 H
18 C18     1.5336     2.1516     0.5951 C
19 C19    -0.6026     0.8081     0.3614 C
20 H20    -0.7094     0.7571     1.4552 H
21 C21     0.1114     2.1216     0.0176 C
22 H22    -0.4565     2.9788     0.3993 H
23 H23     0.1590     2.2342    -1.0753 H
24 C24    -0.5055    -1.7555     0.0580 C
25 H25     0.0596    -2.5595    -0.4253 H
26 H26    -0.5399    -2.0099     1.1237 H
27 C27    -1.9946     0.7276    -0.2781 C
28 H28    -1.8247     0.7033    -1.3695 H
29 C29    -1.9434    -1.7658    -0.5044 C
30 H30    -1.9124    -1.6941    -1.6002 H
31 H31    -2.4332    -2.7181    -0.2697 H
32 C32    -2.7441    -0.5844     0.0510 C
33 C33    -3.0534    -0.7785     1.5593 C
34 H34    -3.6303     0.0522     1.9797 H
35 H35    -3.6466    -1.6902     1.6893 H
36 H36    -2.1431    -0.8789     2.1570 H
37 C37    -3.0423     1.8373    -0.0467 C
38 H38    -2.7788     2.7754    -0.5445 H
39 H39    -3.1536     2.0598     1.0213 H
40 C40    -4.3333     1.2099    -0.6236 C
41 H41    -5.2477     1.4661    -0.0776 H
42 H42    -4.5010     1.5085    -1.6660 H
43 O43     5.6201     0.2067    -1.1119 O
44 O44    -4.8717    -1.1486    -1.0338 O
45 C45    -4.1045    -0.3151    -0.6037 C
46 H46     2.0543     3.0700     0.3026 H
47 H47     1.4618     2.1725     1.6938 H
@<TRIPOS>BOND
1 1 2 1
2 1 6 1
3 1 43 2
4 2 3 2
5 2 7 1
6 3 4 1
7 3 18 1
8 4 5 1
9 4 12 1
10 4 16 1
11 5 6 1
12 5 8 1
13 5 9 1
14 6 10 1
15 6 11 1
16 12 13 1
17 12 14 1
18 12 15 1
19 16 17 1
20 16 19 1
21 16 24 1
22 18 21 1
23 18 46 1
24 18 47 1
25 19 20 1
26 19 21 1
27 19 27 1
28 21 22 1
29 21 23 1
30 24 25 1
31 24 26 1
32 24 29 1
33 27 28 1
34 27 32 1
35 27 37 1
36 29 30 1
37 29 31 1
38 29 32 1
39 32 33 1
40 32 45 1
41 33 34 1
42 33 35 1
43 33 36 1
44 37 38 1
45 37 39 1
46 37 40 1
47 40 41 1
48 40 42 1
49 40 45 1
50 44 45 2
